18
Model[1]: Jmol 14.29.42  2019-05-01 20:42
H       0.62750     -0.61720     -2.30020
C       0.61590     -0.54390     -1.20540
C       0.75910      1.00950      0.75570
C      -0.89360     -0.87411      0.75190
C      -0.61370      0.54541      1.21820
C      -0.75210     -1.00600     -0.74981
C       0.90620      0.87790     -0.75250
H       1.54550      0.41480      1.26190
H      -0.21660     -1.58310      1.26750
H      -1.39610      1.23020      0.83490
H      -1.53870     -0.41020     -1.25590
H       0.22311      1.58441     -1.26471
H       1.40030     -1.22940     -0.82900
H       0.92820      2.05920      1.06330
H      -1.91910     -1.17420      1.00180
H      -0.68090      0.60090      2.32170
H      -0.92290     -2.05580     -1.05860
H       1.92790      1.17160     -1.06100